
*** ChampSim Multicore Out-of-Order Simulator ***

Warmup Instructions: 1000000
Simulation Instructions: 10000000
Configuration: 1
Number of CPUs: 1
LLC sets: 2048
LLC ways: 16
Off-chip DRAM Channels: 1 Width: 64-bit Data Rate: 1600 MT/s

CPU 0 runs trace/mcf_10M.trace.gz
Initialize LRU replacement state
Heartbeat CPU 0 instructions: 1000003 cycles: 496031 heartbeat IPC: 2.01601 cumulative IPC: 2.01601 (Simulation time: 0 hr 0 min 2 sec) 

Warmup complete CPU 0 instructions: 1000003 cycles: 496031 (Simulation time: 0 hr 0 min 2 sec) 

Heartbeat CPU 0 instructions: 2000002 cycles: 14418128 heartbeat IPC: 0.0718282 cumulative IPC: 0.0718282 (Simulation time: 0 hr 0 min 7 sec) 
Heartbeat CPU 0 instructions: 3000000 cycles: 20949788 heartbeat IPC: 0.1531 cumulative IPC: 0.0977814 (Simulation time: 0 hr 0 min 11 sec) 
Heartbeat CPU 0 instructions: 4000000 cycles: 27542475 heartbeat IPC: 0.151683 cumulative IPC: 0.11092 (Simulation time: 0 hr 0 min 14 sec) 
Heartbeat CPU 0 instructions: 5000001 cycles: 45248642 heartbeat IPC: 0.0564776 cumulative IPC: 0.0893802 (Simulation time: 0 hr 0 min 21 sec) 
Heartbeat CPU 0 instructions: 6000002 cycles: 52363917 heartbeat IPC: 0.140543 cumulative IPC: 0.0963987 (Simulation time: 0 hr 0 min 26 sec) 
Heartbeat CPU 0 instructions: 7000000 cycles: 58612797 heartbeat IPC: 0.160028 cumulative IPC: 0.10324 (Simulation time: 0 hr 0 min 30 sec) 
Heartbeat CPU 0 instructions: 8000000 cycles: 69373614 heartbeat IPC: 0.0929297 cumulative IPC: 0.10163 (Simulation time: 0 hr 0 min 35 sec) 
Heartbeat CPU 0 instructions: 9000002 cycles: 83024799 heartbeat IPC: 0.0732539 cumulative IPC: 0.0969359 (Simulation time: 0 hr 0 min 40 sec) 
*** Reached end of trace for Core: 0 Repeating trace: trace/mcf_10M.trace.gz
Heartbeat CPU 0 instructions: 10000001 cycles: 89286902 heartbeat IPC: 0.159691 cumulative IPC: 0.101362 (Simulation time: 0 hr 0 min 43 sec) 
Heartbeat CPU 0 instructions: 11000003 cycles: 99994013 heartbeat IPC: 0.0933961 cumulative IPC: 0.100505 (Simulation time: 0 hr 0 min 47 sec) 
Finished CPU 0 instructions: 10000000 cycles: 99497982 cummulative IPC: 0.100505 (Simulation time: 0 hr 0 min 47 sec) 

ChampSim completed all CPUs

Region of Interest Statistics

CPU 0 cummulative IPC: 0.100505 instructions: 10000000 cycles: 99497982
LLC TOTAL     ACCESS:    1017545  HIT:     367736  MISS:     649809
LLC LOAD      ACCESS:     819885  HIT:     183243  MISS:     636642
LLC RFO       ACCESS:      18330  HIT:       5474  MISS:      12856
LLC PREFETCH  ACCESS:          0  HIT:          0  MISS:          0
LLC WRITEBACK ACCESS:     179330  HIT:     179019  MISS:        311
