
*** ChampSim Multicore Out-of-Order Simulator ***

Warmup Instructions: 1000000
Simulation Instructions: 10000000
Configuration: 1
Number of CPUs: 1
LLC sets: 2048
LLC ways: 16
Off-chip DRAM Channels: 1 Width: 64-bit Data Rate: 1600 MT/s

CPU 0 runs trace/graph_analytics_10M.trace.gz
Initialize LRU replacement state
Heartbeat CPU 0 instructions: 1000002 cycles: 547201 heartbeat IPC: 1.82749 cumulative IPC: 1.82749 (Simulation time: 0 hr 0 min 2 sec) 

Warmup complete CPU 0 instructions: 1000002 cycles: 547201 (Simulation time: 0 hr 0 min 2 sec) 

Heartbeat CPU 0 instructions: 2000001 cycles: 2713939 heartbeat IPC: 0.461523 cumulative IPC: 0.461523 (Simulation time: 0 hr 0 min 5 sec) 
Heartbeat CPU 0 instructions: 3000002 cycles: 7718968 heartbeat IPC: 0.199799 cumulative IPC: 0.278871 (Simulation time: 0 hr 0 min 9 sec) 
Heartbeat CPU 0 instructions: 4000000 cycles: 12767187 heartbeat IPC: 0.198089 cumulative IPC: 0.245499 (Simulation time: 0 hr 0 min 13 sec) 
Heartbeat CPU 0 instructions: 5000000 cycles: 18026930 heartbeat IPC: 0.190123 cumulative IPC: 0.228836 (Simulation time: 0 hr 0 min 17 sec) 
Heartbeat CPU 0 instructions: 6000001 cycles: 22889465 heartbeat IPC: 0.205654 cumulative IPC: 0.223791 (Simulation time: 0 hr 0 min 22 sec) 
Heartbeat CPU 0 instructions: 7000001 cycles: 27981149 heartbeat IPC: 0.196399 cumulative IPC: 0.218707 (Simulation time: 0 hr 0 min 27 sec) 
Heartbeat CPU 0 instructions: 8000000 cycles: 33160255 heartbeat IPC: 0.193083 cumulative IPC: 0.214638 (Simulation time: 0 hr 0 min 32 sec) 
Heartbeat CPU 0 instructions: 9000002 cycles: 38025176 heartbeat IPC: 0.205554 cumulative IPC: 0.213459 (Simulation time: 0 hr 0 min 36 sec) 
*** Reached end of trace for Core: 0 Repeating trace: trace/graph_analytics_10M.trace.gz
Heartbeat CPU 0 instructions: 10000003 cycles: 42827331 heartbeat IPC: 0.20824 cumulative IPC: 0.212866 (Simulation time: 0 hr 0 min 40 sec) 
Heartbeat CPU 0 instructions: 11000002 cycles: 44876850 heartbeat IPC: 0.487919 cumulative IPC: 0.225583 (Simulation time: 0 hr 0 min 43 sec) 
Finished CPU 0 instructions: 10000000 cycles: 44329649 cummulative IPC: 0.225583 (Simulation time: 0 hr 0 min 43 sec) 

ChampSim completed all CPUs

Region of Interest Statistics

CPU 0 cummulative IPC: 0.225583 instructions: 10000000 cycles: 44329649
LLC TOTAL     ACCESS:     142548  HIT:      47674  MISS:      94874
LLC LOAD      ACCESS:     103877  HIT:       9924  MISS:      93953
LLC RFO       ACCESS:        969  HIT:         92  MISS:        877
LLC PREFETCH  ACCESS:          0  HIT:          0  MISS:          0
LLC WRITEBACK ACCESS:      37702  HIT:      37658  MISS:         44
